<?xml version="1.0" encoding="UTF-8"?>
<!-- Lane connections: straight + right turns from lane 2 (matching Pygame will_turn logic) -->
<connections xmlns:xsi="http://www.w3.org/2001/XMLSchema-instance" xsi:noNamespaceSchemaLocation="http://sumo.dlr.de/xsd/connections_file.xsd">
    <!-- From West (right in Pygame): straight to East, turn to South -->
    <connection from="WC" to="CE" fromLane="0" toLane="0"/>
    <connection from="WC" to="CE" fromLane="1" toLane="1"/>
    <connection from="WC" to="CE" fromLane="2" toLane="2"/>
    <connection from="WC" to="CS" fromLane="2" toLane="2"/>
    
    <!-- From North (down in Pygame): straight to South, turn to West -->
    <connection from="NC" to="CS" fromLane="0" toLane="0"/>
    <connection from="NC" to="CS" fromLane="1" toLane="1"/>
    <connection from="NC" to="CS" fromLane="2" toLane="2"/>
    <connection from="NC" to="CW" fromLane="2" toLane="2"/>
    
    <!-- From East (left in Pygame): straight to West, turn to North -->
    <connection from="EC" to="CW" fromLane="0" toLane="0"/>
    <connection from="EC" to="CW" fromLane="1" toLane="1"/>
    <connection from="EC" to="CW" fromLane="2" toLane="2"/>
    <connection from="EC" to="CN" fromLane="2" toLane="2"/>
    
    <!-- From South (up in Pygame): straight to North, turn to East -->
    <connection from="SC" to="CN" fromLane="0" toLane="0"/>
    <connection from="SC" to="CN" fromLane="1" toLane="1"/>
    <connection from="SC" to="CN" fromLane="2" toLane="2"/>
    <connection from="SC" to="CE" fromLane="2" toLane="2"/>
</connections>
